Circuit: * C:\FOSSEE\eSim\library\SubcircuitLibrary\MC1496_ic\MC1496_ic.cir

Fatal Error: Missing model value for Q1
